643189
  -OEChem-11142501433D

 20 20  0     1  0  0  0  0  0999 V2000
    2.3760    0.7796   -1.0034 N   0  0  0  0  0  0  0  0  0  0  0  0
    1.7582    0.3079    0.2496 C   0  0  1  0  0  0  0  0  0  0  0  0
    0.2813    0.1401    0.1256 C   0  0  0  0  0  0  0  0  0  0  0  0
    2.4649   -0.9856    0.6942 C   0  0  0  0  0  0  0  0  0  0  0  0
   -0.5656    1.2244    0.3549 C   0  0  0  0  0  0  0  0  0  0  0  0
   -0.2529   -1.1013   -0.2194 C   0  0  0  0  0  0  0  0  0  0  0  0
   -1.9468    1.0673    0.2394 C   0  0  0  0  0  0  0  0  0  0  0  0
   -1.6341   -1.2584   -0.3352 C   0  0  0  0  0  0  0  0  0  0  0  0
   -2.4810   -0.1740   -0.1057 C   0  0  0  0  0  0  0  0  0  0  0  0
    1.9579    1.0604    1.0234 H   0  0  0  0  0  0  0  0  0  0  0  0
    1.9953   -1.4113    1.5883 H   0  0  0  0  0  0  0  0  0  0  0  0
    3.5105   -0.7723    0.9480 H   0  0  0  0  0  0  0  0  0  0  0  0
    2.4843   -1.7529   -0.0878 H   0  0  0  0  0  0  0  0  0  0  0  0
   -0.1627    2.1976    0.6229 H   0  0  0  0  0  0  0  0  0  0  0  0
    0.3667   -1.9672   -0.4266 H   0  0  0  0  0  0  0  0  0  0  0  0
    2.2831    0.0608   -1.7210 H   0  0  0  0  0  0  0  0  0  0  0  0
    3.3783    0.9006   -0.8604 H   0  0  0  0  0  0  0  0  0  0  0  0
   -2.6063    1.9117    0.4173 H   0  0  0  0  0  0  0  0  0  0  0  0
   -2.0506   -2.2236   -0.6084 H   0  0  0  0  0  0  0  0  0  0  0  0
   -3.5563   -0.2960   -0.1971 H   0  0  0  0  0  0  0  0  0  0  0  0
  1  2  1  0  0  0  0
  1 16  1  0  0  0  0
  1 17  1  0  0  0  0
  2  3  1  0  0  0  0
  2  4  1  0  0  0  0
  2 10  1  0  0  0  0
  3  5  2  0  0  0  0
  3  6  1  0  0  0  0
  4 11  1  0  0  0  0
  4 12  1  0  0  0  0
  4 13  1  0  0  0  0
  5  7  1  0  0  0  0
  5 14  1  0  0  0  0
  6  8  2  0  0  0  0
  6 15  1  0  0  0  0
  7  9  2  0  0  0  0
  7 18  1  0  0  0  0
  8  9  1  0  0  0  0
  8 19  1  0  0  0  0
  9 20  1  0  0  0  0
M  END
> <PUBCHEM_COMPOUND_CID>
643189

> <PUBCHEM_CONFORMER_RMSD>
0.4

> <PUBCHEM_CONFORMER_DIVERSEORDER>
2
1
3

> <PUBCHEM_MMFF94_PARTIAL_CHARGES>
15
1 -0.99
14 0.15
15 0.15
16 0.36
17 0.36
18 0.15
19 0.15
2 0.41
20 0.15
3 -0.14
5 -0.15
6 -0.15
7 -0.15
8 -0.15
9 -0.15

> <PUBCHEM_EFFECTIVE_ROTOR_COUNT>
1

> <PUBCHEM_PHARMACOPHORE_FEATURES>
3
1 1 cation
1 1 donor
6 3 5 6 7 8 9 rings

> <PUBCHEM_HEAVY_ATOM_COUNT>
9

> <PUBCHEM_ATOM_DEF_STEREO_COUNT>
1

> <PUBCHEM_ATOM_UDEF_STEREO_COUNT>
0

> <PUBCHEM_BOND_DEF_STEREO_COUNT>
0

> <PUBCHEM_BOND_UDEF_STEREO_COUNT>
0

> <PUBCHEM_ISOTOPIC_ATOM_COUNT>
0

> <PUBCHEM_COMPONENT_COUNT>
1

> <PUBCHEM_CACTVS_TAUTO_COUNT>
1

> <PUBCHEM_CONFORMER_ID>
0009D07500000002

> <PUBCHEM_MMFF94_ENERGY>
18.386

> <PUBCHEM_FEATURE_SELFOVERLAP>
15.223

> <PUBCHEM_SHAPE_FINGERPRINT>
10857977 72 17987785419047726315
12897270 3 18339365282994415428
15310529 11 17749391481245965221
16714656 1 18343305885486910805
16945 1 18202282502670408835
18185500 45 18336822095276964954
20645464 45 17275092942859301482
20653085 51 17095792227401132789
21040471 1 18199751349472648345
23552423 10 18334011674953275146
2748010 2 17838325634120068783
29004967 10 16081087077983810848
369184 2 17989192742323126147
5084963 1 18260541182550565216

> <PUBCHEM_SHAPE_MULTIPOLES>
180.23
3.63
1.41
0.8
0.92
0.08
0.06
0.14
0.03
-0.29
0
0.33
-0.04
-0.48

> <PUBCHEM_SHAPE_SELFOVERLAP>
366.349

> <PUBCHEM_SHAPE_VOLUME>
105.6

> <PUBCHEM_COORDINATE_TYPE>
2
5
10

$$$$
